
  EPA STORM WATER MANAGEMENT MODEL - VERSION 5.2 (Build 5.2.3)
  ------------------------------------------------------------

  Example 6 
  Runoff Treatment 
  Final Design 
  WARNING 04: minimum elevation drop used for Conduit C_out
  
  *************
  Element Count
  *************
  Number of rain gages ...... 2
  Number of subcatchments ... 24
  Number of nodes ........... 20
  Number of links ........... 23
  Number of pollutants ...... 1
  Number of land uses ....... 4
  
  
  *****************
  Pollutant Summary
  *****************
                               Ppt.      GW         Kdecay
  Name                 Units   Concen.   Concen.    1/days    CoPollutant
  -----------------------------------------------------------------------
  TSS                   MG/L     10.00      0.00      0.00
  
  
  ***************
  Landuse Summary
  ***************
                         Sweeping   Maximum      Last
  Name                   Interval   Removal     Swept
  ---------------------------------------------------
  Residential_1              0.00      0.00      0.00
  Residential_2              0.00      0.00      0.00
  Commercial                 0.00      0.00      0.00
  LID                        0.00      0.00      0.00
  
  
  ****************
  Raingage Summary
  ****************
                                                      Data       Recording
  Name                 Data Source                    Type       Interval 
  ------------------------------------------------------------------------
  RainGage             100-yr                         INTENSITY    5 min.
  Null                 Null                           INTENSITY   60 min.
  
  
  ********************
  Subcatchment Summary
  ********************
  Name                       Area     Width   %Imperv    %Slope Rain Gage            Outlet              
  -----------------------------------------------------------------------------------------------------------
  S5                         4.79   1670.00     87.70    2.0000 RainGage             J10                 
  S6                         1.98    690.00     95.00    2.0000 RainGage             J11                 
  S7                         2.33    907.00      0.00    3.1000 RainGage             J10                 
  S3.1                       1.29    614.00      0.00    4.7000 RainGage             J3                  
  S3.2                       1.02    349.00     65.00    2.0000 RainGage             S_FS_1              
  S_FS_1                     0.04    410.00      0.00    2.0000 Null                 J15                 
  S3.3                       1.38    489.00     58.00    2.0000 RainGage             S_FS_2              
  S4.2                       0.79    268.00     70.00    2.0000 RainGage             S_FS_3              
  S4.1                       1.65    580.00      0.00    5.0000 RainGage             J6                  
  S4.3                       1.91    657.00     65.00    2.0000 RainGage             S_FS_4              
  S4.4                       2.40    839.00     69.00    2.0000 RainGage             J9                  
  S_FS_2                     0.04    463.00      0.00    2.0000 Null                 J17                 
  S_FS_3                     0.03    267.00      0.00    2.0000 Null                 J16                 
  S_FS_4                     0.08    894.00      0.00    2.0000 Null                 J16                 
  S1.1                       1.21    422.00     65.00    2.0000 RainGage             J12                 
  S1.2                       1.46    509.00     65.00    2.0000 RainGage             S_IT_1              
  S1.3                       1.88    655.00     45.00    2.0000 RainGage             S_IT_2              
  S2.1                       1.30    453.00     45.00    2.0000 RainGage             J14                 
  S2.2                       1.50    523.00     70.00    2.0000 RainGage             S_IT_3              
  S2.3                       1.88    655.00     70.00    2.0000 RainGage             S_IT_4              
  S_IT_1                     0.03      3.00      0.00    0.4220 Null                 J1                  
  S_IT_2                     0.03      3.00      0.00    0.4220 Null                 J1                  
  S_IT_3                     0.03      3.00      0.00    0.4440 Null                 J13                 
  S_IT_4                     0.03      3.00      0.00    0.4680 Null                 J13                 


  *******************
  LID Control Summary
  *******************
                                   No. of        Unit        Unit      % Area    % Imperv      % Perv
  Subcatchment     LID Control      Units        Area       Width     Covered     Treated     Treated
  ---------------------------------------------------------------------------------------------------
  S5               asd                  1    12000.00        0.00        5.75        0.00        0.00
  
  
  ************
  Node Summary
  ************
                                           Invert      Max.    Ponded    External
  Name                 Type                 Elev.     Depth      Area    Inflow  
  -------------------------------------------------------------------------------
  J1                   JUNCTION           4973.00      3.00       0.0
  J2                   JUNCTION           4969.00      1.50       0.0
  J3                   JUNCTION           4973.00      2.25       0.0
  J4                   JUNCTION           4971.00      3.00       0.0
  J5                   JUNCTION           4969.80      3.00       0.0
  J6                   JUNCTION           4969.00      3.50       0.0
  J7                   JUNCTION           4971.50      3.00       0.0
  J8                   JUNCTION           4966.50      3.50       0.0    Yes
  J10                  JUNCTION           4963.80      3.00       0.0
  J9                   JUNCTION           4964.80      3.00       0.0
  J11                  JUNCTION           4963.00      5.50       0.0
  J12                  JUNCTION           4973.80      3.00       0.0
  J13                  JUNCTION           4970.70      1.50       0.0
  J14                  JUNCTION           4972.90      1.50       0.0
  J15                  JUNCTION           4974.50      1.30       0.0
  J16                  JUNCTION           4973.50      1.50       0.0
  J17                  JUNCTION           4973.50      3.00       0.0
  J_out                JUNCTION           4954.00      4.75       0.0
  O2                   OUTFALL            4954.00      4.75       0.0
  SU2                  STORAGE            4956.00      6.00       0.0
  
  
  ************
  Link Summary
  ************
  Name             From Node        To Node          Type            Length    %Slope Roughness
  ---------------------------------------------------------------------------------------------
  C1               J1               J5               CONDUIT          185.0    1.7300    0.0500
  C2               J2               J11              CONDUIT          526.0    0.3802    0.0160
  C3               J3               J4               CONDUIT          109.0    1.8352    0.0160
  C4               J4               J5               CONDUIT          133.0    0.9023    0.0500
  C5               J5               J6               CONDUIT          207.0    0.3865    0.0500
  C6               J7               J6               CONDUIT          140.0    1.7860    0.0500
  C7               J6               J8               CONDUIT           95.0    2.6325    0.0160
  C8               J8               J9               CONDUIT          166.0    1.0242    0.0500
  C9               J9               J10              CONDUIT          320.0    0.3125    0.0500
  C10              J10              J11              CONDUIT          145.0    0.5517    0.0500
  C11              J11              SU2              CONDUIT           89.0    6.7569    0.0160
  C12              J12              J1               CONDUIT          281.7    0.2840    0.0500
  C13              J14              J13              CONDUIT          275.7    0.7980    0.0160
  C14              J13              J2               CONDUIT          157.5    1.0796    0.0160
  Street1          J15              J3               CONDUIT          444.8    0.3373    0.0160
  C16              J17              J5               CONDUIT          200.2    1.8488    0.0500
  C17              J16              J7               CONDUIT          300.4    0.6657    0.0160
  C_out            J_out            O2               CONDUIT          100.0    0.0010    0.0100
  PUMP1            J17              J7               TYPE1 PUMP  
  Or1              SU2              J_out            ORIFICE     
  Or2              SU2              J_out            ORIFICE     
  W1               SU2              J_out            WEIR        
  2                J16              J7               OUTLET      
  
  
  *********************
  Cross Section Summary
  *********************
                                        Full     Full     Hyd.     Max.   No. of     Full
  Conduit          Shape               Depth     Area     Rad.    Width  Barrels     Flow
  ---------------------------------------------------------------------------------------
  C1               TRAPEZOIDAL          3.00    60.00     1.69    35.00        1   332.20
  C2               TRAPEZOIDAL          1.50    28.13     0.72    37.50        1   129.46
  C3               CIRCULAR             2.25     3.98     0.56     2.25        1    34.09
  C4               TRAPEZOIDAL          3.00    60.00     1.69    35.00        1   239.91
  C5               TRAPEZOIDAL          3.00    60.00     1.69    35.00        1   157.02
  C6               TRAPEZOIDAL          3.00    60.00     1.69    35.00        1   337.54
  C7               CIRCULAR             3.50     9.62     0.88     3.50        1   132.63
  C8               TRAPEZOIDAL          3.00    60.00     1.69    35.00        1   255.60
  C9               TRAPEZOIDAL          3.00    60.00     1.69    35.00        1   141.19
  C10              TRAPEZOIDAL          3.00    60.00     1.69    35.00        1   187.61
  C11              CIRCULAR             4.75    17.72     1.19     4.75        1   479.74
  C12              TRAPEZOIDAL          3.00    60.00     1.69    35.00        1   134.60
  C13              TRAPEZOIDAL          1.50    28.13     0.72    37.50        1   187.55
  C14              TRAPEZOIDAL          1.50    28.13     0.72    37.50        1   218.15
  Street1          StreetQS             1.30    26.00     0.64    40.00        1   104.03
  C16              TRAPEZOIDAL          3.00    60.00     1.69    35.00        1   343.42
  C17              triangle             1.50     1.41     0.26     1.50        1     4.33
  C_out            CIRCULAR             4.75    17.72     1.19     4.75        1     9.34
  
  
  *************
  Shape Summary
  *************

  Shape triangle
  Area:  
              0.0317     0.0627     0.0931     0.1229     0.1520 
              0.1805     0.2083     0.2355     0.2621     0.2880 
              0.3133     0.3379     0.3619     0.3853     0.4080 
              0.4301     0.4515     0.4723     0.4925     0.5120 
              0.5309     0.5491     0.5667     0.5837     0.6000 
              0.6160     0.6320     0.6480     0.6640     0.6800 
              0.6960     0.7120     0.7280     0.7440     0.7600 
              0.7760     0.7920     0.8080     0.8240     0.8400 
              0.8560     0.8720     0.8880     0.9040     0.9200 
              0.9360     0.9520     0.9680     0.9840     1.0000 
  Hrad:  
              0.1097     0.2083     0.2971     0.3771     0.4494 
              0.5148     0.5740     0.6276     0.6761     0.7200 
              0.7597     0.7956     0.8280     0.8572     0.8835 
              0.9070     0.9281     0.9468     0.9633     0.9778 
              0.9905     1.0014     1.0108     1.0186     1.0249 
              1.0327     1.0403     1.0476     1.0546     1.0614 
              1.0679     1.0742     1.0803     1.0863     1.0920 
              1.0976     1.1029     1.1082     1.1132     1.1181 
              1.1229     1.1276     1.1321     1.1364     1.1407 
              1.1448     1.1489     1.1528     1.1566     1.0000 
  Width: 
              0.9800     0.9600     0.9400     0.9200     0.9000 
              0.8800     0.8600     0.8400     0.8200     0.8000 
              0.7800     0.7600     0.7400     0.7200     0.7000 
              0.6800     0.6600     0.6400     0.6200     0.6000 
              0.5800     0.5600     0.5400     0.5200     0.5000 
              0.5000     0.5000     0.5000     0.5000     0.5000 
              0.5000     0.5000     0.5000     0.5000     0.5000 
              0.5000     0.5000     0.5000     0.5000     0.5000 
              0.5000     0.5000     0.5000     0.5000     0.5000 
              0.5000     0.5000     0.5000     0.5000     0.5000 
  
  
  ****************
  Transect Summary
  ****************

  Transect asd
  Area:  
              0.0004     0.0016     0.0036     0.0064     0.0100 
              0.0144     0.0196     0.0256     0.0324     0.0400 
              0.0484     0.0576     0.0676     0.0784     0.0900 
              0.1024     0.1156     0.1296     0.1444     0.1600 
              0.1764     0.1936     0.2116     0.2304     0.2500 
              0.2704     0.2916     0.3136     0.3364     0.3600 
              0.3844     0.4096     0.4356     0.4624     0.4900 
              0.5184     0.5476     0.5776     0.6084     0.6400 
              0.6724     0.7056     0.7396     0.7744     0.8100 
              0.8464     0.8836     0.9216     0.9604     1.0000 
  Hrad:  
              0.0200     0.0400     0.0600     0.0800     0.1000 
              0.1200     0.1400     0.1600     0.1800     0.2000 
              0.2200     0.2400     0.2600     0.2800     0.3000 
              0.3200     0.3400     0.3600     0.3800     0.4000 
              0.4200     0.4400     0.4600     0.4800     0.5000 
              0.5200     0.5400     0.5600     0.5800     0.6000 
              0.6200     0.6400     0.6600     0.6800     0.7000 
              0.7200     0.7400     0.7600     0.7800     0.8000 
              0.8200     0.8400     0.8600     0.8800     0.9000 
              0.9200     0.9400     0.9600     0.9800     1.0000 
  Width: 
              0.0200     0.0400     0.0600     0.0800     0.1000 
              0.1200     0.1400     0.1600     0.1800     0.2000 
              0.2200     0.2400     0.2600     0.2800     0.3000 
              0.3200     0.3400     0.3600     0.3800     0.4000 
              0.4200     0.4400     0.4600     0.4800     0.5000 
              0.5200     0.5400     0.5600     0.5800     0.6000 
              0.6200     0.6400     0.6600     0.6800     0.7000 
              0.7200     0.7400     0.7600     0.7800     0.8000 
              0.8200     0.8400     0.8600     0.8800     0.9000 
              0.9200     0.9400     0.9600     0.9800     1.0000 
  
  
  **************
  Street Summary
  **************

  Street StreetQS
  Area:  
              0.0003     0.0013     0.0029     0.0052     0.0081 
              0.0117     0.0159     0.0208     0.0263     0.0325 
              0.0393     0.0468     0.0549     0.0637     0.0731 
              0.0832     0.0939     0.1053     0.1173     0.1302 
              0.1443     0.1598     0.1765     0.1946     0.2139 
              0.2346     0.2565     0.2798     0.3043     0.3302 
              0.3573     0.3853     0.4139     0.4432     0.4731 
              0.5037     0.5349     0.5668     0.5993     0.6325 
              0.6663     0.7008     0.7359     0.7717     0.8081 
              0.8452     0.8829     0.9213     0.9603     1.0000 
  Hrad:  
              0.0195     0.0389     0.0584     0.0779     0.0974 
              0.1168     0.1363     0.1558     0.1752     0.1947 
              0.2142     0.2337     0.2531     0.2726     0.2921 
              0.3115     0.3310     0.3505     0.3700     0.3766 
              0.3821     0.3899     0.3994     0.4105     0.4227 
              0.4358     0.4498     0.4644     0.4796     0.4953 
              0.5141     0.5418     0.5692     0.5963     0.6231 
              0.6497     0.6760     0.7020     0.7278     0.7534 
              0.7788     0.8040     0.8291     0.8539     0.8786 
              0.9032     0.9276     0.9519     0.9760     1.0000 
  Width: 
              0.0163     0.0325     0.0488     0.0650     0.0813 
              0.0975     0.1137     0.1300     0.1462     0.1625 
              0.1788     0.1950     0.2113     0.2275     0.2438 
              0.2600     0.2763     0.2925     0.3088     0.3375 
              0.3700     0.4025     0.4350     0.4675     0.5000 
              0.5325     0.5650     0.5975     0.6300     0.6625 
              0.6913     0.7075     0.7238     0.7400     0.7563 
              0.7725     0.7888     0.8050     0.8213     0.8375 
              0.8538     0.8700     0.8863     0.9025     0.9188 
              0.9350     0.9513     0.9675     0.9838     1.0000 
  
  
  ****************
  Analysis Options
  ****************
  Flow Units ............... CFS
  Process Models:
    Rainfall/Runoff ........ YES
    RDII ................... YES
    Snowmelt ............... YES
    Groundwater ............ YES
    Flow Routing ........... YES
    Ponding Allowed ........ NO
    Water Quality .......... YES
  Infiltration Method ...... HORTON
  Flow Routing Method ...... DYNWAVE
  Surcharge Method ......... EXTRAN
  Starting Date ............ 01/01/3007 00:00:00
  Ending Date .............. 01/03/3007 00:00:00
  Antecedent Dry Days ...... 5.0
  Report Time Step ......... 00:01:00
  Wet Time Step ............ 00:01:00
  Dry Time Step ............ 01:00:00
  Routing Time Step ........ 15.00 sec
  Variable Time Step ....... YES
  Maximum Trials ........... 8
  Number of Threads ........ 1
  Head Tolerance ........... 0.005000 ft
  
  
  **********************           Volume        Volume
  Rainfall Dependent I/I        acre-feet      10^6 gal
  **********************        ---------     ---------
  Sewershed Rainfall ......         0.000         0.000
  RDII Produced ...........         0.000         0.000
  RDII Ratio ..............         0.000
  
  
  *********************
  Control Actions Taken
  *********************

  
  **************************        Volume         Depth
  Runoff Quantity Continuity     acre-feet        inches
  **************************     ---------       -------
  Initial LID Storage ......         0.028         0.011
  Initial Snow Cover .......         0.000         0.000
  Total Precipitation ......         8.797         3.629
  Evaporation Loss .........         2.737         1.129
  Infiltration Loss ........         1.210         0.499
  Surface Runoff ...........         4.862         2.006
  Snow Removed .............         0.000         0.000
  Final Snow Cover .........         0.000         0.000
  Final Storage ............         0.028         0.011
  Continuity Error (%) .....        -0.131
  
  
  **************************           TSS
  Runoff Quality Continuity            lbs
  **************************    ----------
  Initial Buildup ..........      1015.204
  Surface Buildup ..........       617.388
  Wet Deposition ...........       239.052
  Sweeping Removal .........         0.000
  Infiltration Loss ........        39.354
  BMP Removal ..............       417.086
  Surface Runoff ...........       718.933
  Remaining Buildup ........       617.388
  Continuity Error (%) .....         4.215
  
  
  **************************        Volume         Depth
  Groundwater Continuity         acre-feet        inches
  **************************     ---------       -------
  Initial Storage ..........         6.016        38.400
  Infiltration .............         0.053         0.336
  Upper Zone ET ............         0.374         2.390
  Lower Zone ET ............         0.200         1.274
  Deep Percolation .........         0.000         0.001
  Groundwater Flow .........         0.398         2.541
  Final Storage ............         5.265        33.607
  Continuity Error (%) .....        -2.775
  
  
  **************************        Volume        Volume
  Flow Routing Continuity        acre-feet      10^6 gal
  **************************     ---------     ---------
  Dry Weather Inflow .......         7.934         2.585
  Wet Weather Inflow .......         4.863         1.585
  Groundwater Inflow .......         0.398         0.130
  RDII Inflow ..............         0.000         0.000
  External Inflow ..........         3.967         1.293
  External Outflow .........        16.076         5.239
  Flooding Loss ............         0.022         0.007
  Evaporation Loss .........         0.343         0.112
  Exfiltration Loss ........         0.121         0.040
  Initial Stored Volume ....         0.000         0.000
  Final Stored Volume ......         0.604         0.197
  Continuity Error (%) .....        -0.032
  
  
  **************************           TSS
  Quality Routing Continuity           lbs
  **************************    ----------
  Dry Weather Inflow .......         0.000
  Wet Weather Inflow .......       717.991
  Groundwater Inflow .......         0.000
  RDII Inflow ..............         0.000
  External Inflow ..........         0.000
  External Outflow .........       719.679
  Flooding Loss ............         3.568
  Exfiltration Loss ........         0.883
  Mass Reacted .............         1.789
  Initial Stored Mass ......         0.000
  Final Stored Mass ........         0.124
  Continuity Error (%) .....        -1.121
  
  
  *************************
  Highest Continuity Errors
  *************************
  Node J3 (2.24%)
  
  
  ***************************
  Time-Step Critical Elements
  ***************************
  Link C_out (93.17%)
  Link C11 (6.70%)
  
  
  ********************************
  Highest Flow Instability Indexes
  ********************************
  Link 2 (1)
  
  
  *********************************
  Most Frequent Nonconverging Nodes
  *********************************
  Convergence obtained at all time steps.
  
  
  *************************
  Routing Time Step Summary
  *************************
  Minimum Time Step           :     0.07 sec
  Average Time Step           :    11.31 sec
  Maximum Time Step           :    15.00 sec
  % of Time in Steady State   :     0.00
  Average Iterations per Step :     2.00
  % of Steps Not Converging   :     0.00
  Time Step Frequencies       :
     15.000 -  7.597 sec      :    90.33 %
      7.597 -  3.848 sec      :     6.59 %
      3.848 -  1.949 sec      :     3.08 %
      1.949 -  0.987 sec      :     0.00 %
      0.987 -  0.500 sec      :     0.00 %
  
  
  ***************************
  Subcatchment Runoff Summary
  ***************************
  
  ------------------------------------------------------------------------------------------------------------------------------
                            Total      Total      Total      Total     Imperv       Perv      Total       Total     Peak  Runoff
                           Precip      Runon       Evap      Infil     Runoff     Runoff     Runoff      Runoff   Runoff   Coeff
  Subcatchment                 in         in         in         in         in         in         in    10^6 gal      CFS
  ------------------------------------------------------------------------------------------------------------------------------
  S5                         3.67       0.00       1.11       0.14       2.16       0.17       2.42        0.32    44.65   0.660
  S6                         3.67       0.00       1.06       0.06       2.48       0.08       2.56        0.14    18.72   0.697
  S7                         3.67       0.00       1.10       1.13       0.00       1.44       1.44        0.09     8.93   0.391
  S3.1                       3.67       0.00       1.09       1.13       0.00       1.46       1.46        0.05     6.44   0.398
  S3.2                       3.67       0.00       1.06       0.39       1.70       0.52       2.22        0.06     8.40   0.604
  S_FS_1                     0.00      59.52       1.24       0.50       0.00      57.81      57.81        0.06     8.37   0.971
  S3.3                       3.67       0.00       1.06       0.47       1.52       0.62       2.14        0.08    10.76   0.582
  S4.2                       3.67       0.00       1.06       0.34       1.83       0.44       2.28        0.05     6.75   0.620
  S4.1                       3.67       0.00       1.10       1.13       0.00       1.45       1.45        0.06     6.95   0.394
  S4.3                       3.67       0.00       1.06       0.39       1.70       0.52       2.22        0.12    15.74   0.604
  S4.4                       3.67       0.00       1.06       0.35       1.81       0.46       2.26        0.15    20.41   0.617
  S_FS_2                     0.00      68.54       1.25       0.50       0.00      66.83      66.83        0.08    10.73   0.975
  S_FS_3                     0.00      71.90       1.25       0.50       0.00      70.18      70.18        0.05     6.73   0.976
  S_FS_4                     0.00      51.65       1.24       0.50       0.00      49.94      49.94        0.11    15.67   0.967
  S1.1                       3.67       0.00       1.06       0.39       1.70       0.52       2.22        0.07     9.99   0.604
  S1.2                       3.67       0.00       1.06       0.39       1.70       0.52       2.22        0.09    12.05   0.604
  S1.3                       3.67       0.00       1.07       0.62       1.18       0.80       1.98        0.10    12.80   0.539
  S2.1                       3.67       0.00       1.07       0.62       1.18       0.80       1.98        0.07     8.85   0.539
  S2.2                       3.67       0.00       1.06       0.34       1.83       0.44       2.28        0.09    12.84   0.620
  S2.3                       3.67       0.00       1.06       0.34       1.83       0.44       2.28        0.12    16.10   0.620
  S_IT_1                     0.00     104.45      12.54       5.02       0.00      87.12      87.12        0.07     5.91   0.834
  S_IT_2                     0.00     112.76      12.54       5.02       0.00      95.33      95.33        0.09     6.20   0.845
  S_IT_3                     0.00     110.12      12.54       5.02       0.00      92.81      92.81        0.08     6.67   0.843
  S_IT_4                     0.00     133.70      12.54       5.02       0.00     116.37     116.37        0.10     9.19   0.870
  

  ***********************
  LID Performance Summary
  ***********************

  --------------------------------------------------------------------------------------------------------------------
                                         Total      Evap     Infil   Surface    Drain    Initial     Final  Continuity
                                        Inflow      Loss      Loss   Outflow   Outflow   Storage   Storage       Error
  Subcatchment      LID Control             in        in        in        in        in        in        in           %
  --------------------------------------------------------------------------------------------------------------------
  S5                asd                   3.67      2.04      0.11      1.52      0.00      1.20      1.20       -0.00
  
  *******************
  Groundwater Summary
  *******************
  
  -----------------------------------------------------------------------------------------------------
                                            Total    Total  Maximum  Average  Average    Final    Final
                          Total    Total    Lower  Lateral  Lateral    Upper    Water    Upper    Water
                          Infil     Evap  Seepage  Outflow  Outflow   Moist.    Table   Moist.    Table
  Subcatchment               in       in       in       in      CFS                ft                ft
  -----------------------------------------------------------------------------------------------------
  S2.3                     0.34     3.66     0.00     2.50     1.87     0.29     0.05     0.28     0.00
  
  
  ****************************
  Subcatchment Washoff Summary
  ****************************
  
  ----------------------------------
                                 TSS
  Subcatchment                   lbs
  ----------------------------------
  S5                         248.895
  S6                         115.766
  S7                           7.573
  S3.1                         4.268
  S3.2                        48.539
  S_FS_1                      14.642
  S3.3                        57.389
  S4.2                        51.802
  S4.1                         5.400
  S4.3                       139.219
  S4.4                        59.431
  S_FS_2                      17.457
  S_FS_3                      15.603
  S_FS_4                      41.467
  S1.1                        51.514
  S1.2                        67.915
  S1.3                        72.038
  S2.1                        51.263
  S2.2                        79.328
  S2.3                        84.866
  S_IT_1                      18.764
  S_IT_2                      20.155
  S_IT_3                      22.229
  S_IT_4                      24.505
  ----------------------------------
  System                    1320.028
  
  
  ******************
  Node Depth Summary
  ******************
  
  ---------------------------------------------------------------------------------
                                 Average  Maximum  Maximum  Time of Max    Reported
                                   Depth    Depth      HGL   Occurrence   Max Depth
  Node                 Type         Feet     Feet     Feet  days hr:min        Feet
  ---------------------------------------------------------------------------------
  J1                   JUNCTION     0.06     0.89  4973.89     0  00:37        0.89
  J2                   JUNCTION     0.05     0.75  4969.75     0  00:41        0.75
  J3                   JUNCTION     0.03     0.74  4973.74     0  00:39        0.74
  J4                   JUNCTION     0.02     0.59  4971.59     0  00:40        0.59
  J5                   JUNCTION     0.10     1.54  4971.34     0  00:41        1.54
  J6                   JUNCTION     0.09     1.52  4970.52     0  00:39        1.52
  J7                   JUNCTION     0.03     0.74  4972.24     0  00:36        0.74
  J8                   JUNCTION     0.40     1.51  4968.01     0  00:39        1.51
  J10                  JUNCTION     0.59     2.39  4966.19     0  00:35        2.39
  J9                   JUNCTION     0.55     2.11  4966.91     0  00:40        2.11
  J11                  JUNCTION     0.32     1.59  4964.59     0  00:35        1.58
  J12                  JUNCTION     0.03     0.91  4974.71     0  00:35        0.91
  J13                  JUNCTION     0.04     0.64  4971.34     0  00:36        0.63
  J14                  JUNCTION     0.02     0.47  4973.37     0  00:35        0.47
  J15                  JUNCTION     0.03     0.54  4975.04     0  00:36        0.54
  J16                  JUNCTION     0.02     1.50  4975.00     0  00:32        1.50
  J17                  JUNCTION     0.02     0.58  4974.08     0  00:36        0.58
  J_out                JUNCTION     0.70     1.60  4955.60     0  01:09        1.60
  O2                   OUTFALL      0.55     1.43  4955.43     0  01:09        1.43
  SU2                  STORAGE      2.28     5.24  4961.24     0  01:09        5.24
  
  
  *******************
  Node Inflow Summary
  *******************
  
  -------------------------------------------------------------------------------------------------
                                  Maximum  Maximum                  Lateral       Total        Flow
                                  Lateral    Total  Time of Max      Inflow      Inflow     Balance
                                   Inflow   Inflow   Occurrence      Volume      Volume       Error
  Node                 Type           CFS      CFS  days hr:min    10^6 gal    10^6 gal     Percent
  -------------------------------------------------------------------------------------------------
  J1                   JUNCTION     16.49    24.64     0  00:36       0.328         0.4       0.058
  J2                   JUNCTION      0.00    22.05     0  00:36           0       0.247       0.058
  J3                   JUNCTION      2.80     9.94     0  00:35      0.0116       0.078       2.289
  J4                   JUNCTION      0.00     7.60     0  00:39           0      0.0696       0.019
  J5                   JUNCTION      0.00    38.59     0  00:36           0       0.542       0.246
  J6                   JUNCTION      6.95    52.36     0  00:37      0.0648       0.753       0.024
  J7                   JUNCTION      0.00    16.44     0  00:35           0       0.152      -0.326
  J8                   JUNCTION      3.00    54.73     0  00:39        3.88        4.63       0.030
  J10                  JUNCTION     53.58    97.95     0  00:35       0.406         5.1       0.121
  J9                   JUNCTION     20.41    63.87     0  00:39       0.148        4.75       0.150
  J11                  JUNCTION     18.72   115.86     0  00:35       0.137        5.42       0.042
  J12                  JUNCTION      9.99     9.99     0  00:35      0.0728      0.0728      -0.802
  J13                  JUNCTION     15.81    22.55     0  00:36       0.179       0.249       0.106
  J14                  JUNCTION      8.85     8.85     0  00:35      0.0699      0.0699      -0.731
  J15                  JUNCTION      8.37     8.37     0  00:36      0.0597      0.0597      -2.838
  J16                  JUNCTION     22.40    22.40     0  00:36       0.159       0.159      -0.069
  J17                  JUNCTION     10.73    10.73     0  00:36       0.078       0.078      -0.701
  J_out                JUNCTION      0.00    25.97     0  01:09           0        5.24       0.008
  O2                   OUTFALL       0.00    25.97     0  01:09           0        5.24       0.000
  SU2                  STORAGE       0.00   115.53     0  00:35           0        5.42      -0.029
  
  
  **********************
  Node Surcharge Summary
  **********************
  
  Surcharging occurs when water rises above the top of the highest conduit.
  ---------------------------------------------------------------------
                                               Max. Height   Min. Depth
                                   Hours       Above Crown    Below Rim
  Node                 Type      Surcharged           Feet         Feet
  ---------------------------------------------------------------------
  J16                  JUNCTION        0.07          0.000        0.000
  
  
  *********************
  Node Flooding Summary
  *********************
  
  Flooding refers to all water that overflows a node, whether it ponds or not.
  --------------------------------------------------------------------------
                                                             Total   Maximum
                                 Maximum   Time of Max       Flood    Ponded
                        Hours       Rate    Occurrence      Volume     Depth
  Node                 Flooded       CFS   days hr:min    10^6 gal      Feet
  --------------------------------------------------------------------------
  J16                     0.07      5.93      0  00:36       0.007     0.000
  
  
  **********************
  Storage Volume Summary
  **********************
  
  ------------------------------------------------------------------------------------------------
                         Average    Avg   Evap  Exfil     Maximum    Max    Time of Max    Maximum
                          Volume   Pcnt   Pcnt   Pcnt      Volume   Pcnt     Occurrence    Outflow
  Storage Unit          1000 ft³   Full   Loss   Loss    1000 ft³   Full    days hr:min        CFS
  ------------------------------------------------------------------------------------------------
  SU2                     34.949   19.3    0.0    0.0     144.954   79.9       0  01:09      25.97
  
  
  ***********************
  Outfall Loading Summary
  ***********************
  
  -------------------------------------------------------------------------
                         Flow       Avg       Max       Total         Total
                         Freq      Flow      Flow      Volume           TSS
  Outfall Node           Pcnt       CFS       CFS    10^6 gal           lbs
  -------------------------------------------------------------------------
  O2                    99.63      4.73     25.97       5.238       720.026
  -------------------------------------------------------------------------
  System                99.63      4.73     25.97       5.238       720.026
  
  
  *******************
  Street Flow Summary
  *******************
  
  ---------------------------------------------------------------------------------------------------------------------------------------
                                                                                        Peak     Avg.   Bypass     Back     Peak     Peak
                        Peak   Maximum   Maximum                                        Flow     Flow     Flow     Flow  Capture   Bypass
                        Flow    Spread     Depth  Inlet             Inlet     Inlet  Capture  Capture     Freq     Freq  / Inlet     Flow
  Street Conduit         CFS        ft        ft  Design            Location  Count     Pcnt     Pcnt     Pcnt     Pcnt      CFS      CFS
  ---------------------------------------------------------------------------------------------------------------------------------------
  Street1              7.619    18.414     0.618  ComboInlet        ON-GRADE      1    50.17    82.66    82.82     0.00     3.82     3.80
  
  
  ********************
  Link Flow Summary
  ********************
  
  -----------------------------------------------------------------------------
                                 Maximum  Time of Max   Maximum    Max/    Max/
                                  |Flow|   Occurrence   |Veloc|    Full    Full
  Link                 Type          CFS  days hr:min    ft/sec    Flow   Depth
  -----------------------------------------------------------------------------
  C1                   CONDUIT     23.44     0  00:37      1.93    0.07    0.40
  C2                   CONDUIT     19.58     0  00:41      3.03    0.15    0.48
  C3                   CONDUIT      7.60     0  00:39      7.79    0.22    0.29
  C4                   CONDUIT      7.53     0  00:40      0.69    0.03    0.35
  C5                   CONDUIT     34.42     0  00:40      1.80    0.22    0.51
  C6                   CONDUIT     16.42     0  00:36      1.90    0.05    0.37
  C7                   CONDUIT     51.73     0  00:39     12.96    0.39    0.43
  C8                   CONDUIT     54.63     0  00:40      2.16    0.21    0.60
  C9                   CONDUIT     62.51     0  00:40      1.75    0.44    0.74
  C10                  CONDUIT     90.06     0  00:35      3.03    0.48    0.66
  C11                  CONDUIT    115.53     0  00:35     20.68    0.24    0.54
  C12                  CONDUIT      9.42     0  00:35      1.17    0.07    0.29
  C13                  CONDUIT      8.47     0  00:35      2.57    0.05    0.36
  C14                  CONDUIT     22.05     0  00:36      4.28    0.10    0.45
  Street1              CONDUIT      7.62     0  00:36      2.57    0.07    0.48
  C16                  CONDUIT     10.38     0  00:36      1.27    0.03    0.33
  C17                  CONDUIT      4.20     0  00:35      3.75    0.97    0.75
  C_out                CONDUIT     25.97     0  01:09      5.34    2.78    0.32
  PUMP1                PUMP         0.00     0  00:00              0.00
  Or1                  ORIFICE      0.47     0  01:09                      1.00
  Or2                  ORIFICE     10.97     0  01:09                      1.00
  W1                   WEIR        14.53     0  01:09                      0.72
  2                    DUMMY       12.25     0  00:32
  
  
  ***************************
  Flow Classification Summary
  ***************************
  
  -------------------------------------------------------------------------------------
                      Adjusted    ---------- Fraction of Time in Flow Class ---------- 
                       /Actual         Up    Down  Sub   Sup   Up    Down  Norm  Inlet 
  Conduit               Length    Dry  Dry   Dry   Crit  Crit  Crit  Crit  Ltd   Ctrl  
  -------------------------------------------------------------------------------------
  C1                      1.00   0.24  0.45  0.00  0.31  0.00  0.00  0.00  1.00  0.00
  C2                      1.00   0.00  0.00  0.00  0.00  0.00  0.00  1.00  0.00  0.00
  C3                      1.00   0.00  0.00  0.00  0.94  0.05  0.00  0.00  0.00  0.00
  C4                      1.00   0.24  0.64  0.00  0.13  0.00  0.00  0.00  0.99  0.00
  C5                      1.00   0.24  0.00  0.00  0.76  0.00  0.00  0.00  0.18  0.00
  C6                      1.00   0.48  0.42  0.00  0.10  0.00  0.00  0.00  1.00  0.00
  C7                      1.00   0.00  0.48  0.00  0.48  0.05  0.00  0.00  1.00  0.00
  C8                      1.00   0.00  0.00  0.00  1.00  0.00  0.00  0.00  1.00  0.00
  C9                      1.00   0.00  0.00  0.00  1.00  0.00  0.00  0.00  0.99  0.00
  C10                     1.00   0.00  0.00  0.00  1.00  0.00  0.00  0.00  0.00  0.00
  C11                     1.00   0.00  0.00  0.00  0.98  0.01  0.00  0.01  0.99  0.00
  C12                     1.00   0.69  0.09  0.00  0.23  0.00  0.00  0.00  1.00  0.00
  C13                     1.00   0.00  0.00  0.00  0.99  0.01  0.00  0.00  0.99  0.00
  C14                     1.00   0.00  0.00  0.00  0.99  0.01  0.00  0.00  0.99  0.00
  Street1                 1.00   0.00  0.00  0.00  0.94  0.06  0.00  0.00  0.03  0.00
  C16                     1.00   0.24  0.67  0.00  0.09  0.00  0.00  0.00  1.00  0.00
  C17                     1.00   0.90  0.06  0.00  0.04  0.00  0.00  0.00  0.99  0.00
  C_out                   1.00   0.00  0.00  0.00  1.00  0.00  0.00  0.00  0.00  0.00
  
  
  *************************
  Conduit Surcharge Summary
  *************************
  
  ----------------------------------------------------------------------------
                                                           Hours        Hours 
                         --------- Hours Full --------   Above Full   Capacity
  Conduit                Both Ends  Upstream  Dnstream   Normal Flow   Limited
  ----------------------------------------------------------------------------
  C17                         0.01      0.07      0.01      0.01         0.01
  C_out                       0.01      0.01      0.01      2.73         0.01
  
  
  ***************
  Pumping Summary
  ***************
  
  ---------------------------------------------------------------------------------------------------------
                                                  Min       Avg       Max     Total     Power    % Time Off
                        Percent   Number of      Flow      Flow      Flow    Volume     Usage    Pump Curve
  Pump                 Utilized   Start-Ups       CFS       CFS       CFS  10^6 gal     Kw-hr    Low   High
  ---------------------------------------------------------------------------------------------------------
  PUMP1                    0.00           0      0.00      0.00      0.00     0.000      0.00    0.0    0.0
  
  
  ***************************
  Link Pollutant Load Summary
  ***************************
  
  ----------------------------------
                                 TSS
  Link                           lbs
  ----------------------------------
  C1                         114.649
  C2                          99.903
  C3                          18.835
  C4                          20.047
  C5                         149.959
  C6                          57.696
  C7                         207.670
  C8                         211.510
  C9                         280.044
  C10                        512.600
  C11                        721.242
  C12                         61.638
  C13                         58.421
  C14                        104.260
  Street1                     19.819
  C16                         21.888
  C17                         10.931
  C_out                      720.026
  PUMP1                        0.000
  Or1                         24.443
  Or2                        456.514
  W1                         237.517
  2                           42.966
  

  Analysis begun on:  Fri Jul 21 09:52:00 2023
  Analysis ended on:  Fri Jul 21 09:52:00 2023
  Total elapsed time: < 1 sec